/*--------------------------------*- C++ -*----------------------------------*\
  =========                 |
  \\      /  F ield         | OpenFOAM: The Open Source CFD Toolbox
   \\    /   O peration     | Website:  https://openfoam.org
    \\  /    A nd           | Version:  6
     \\/     M anipulation  |
\*---------------------------------------------------------------------------*/
FoamFile
{
    version     2.0;
    format      ascii;
    class       polyBoundaryMesh;
    location    "constant/polyMesh";
    object      boundary;
}
// * * * * * * * * * * * * * * * * * * * * * * * * * * * * * * * * * * * * * //

3
(
    outlet
    {
        type            patch;
        nFaces          3136;
        startFace       62948;
    }
    inlet
    {
        type            patch;
        nFaces          3136;
        startFace       66084;
    }
    wall
    {
        type            wall;
        inGroups        1(wall);
        nFaces          2992;
        startFace       69220;
    }
)

// ************************************************************************* //
